egret/models/tests/pglib_opf_case3_lmbd_acopf_0910.json
{"elements": {"bus": {"1": {"matpower_bustype": "ref", "area": 1.0, "vm": 1.0535719643147679, "va": 0.0, "base_kv": 240.0, "zone": 1.0, "v_min": 0.9, "v_max": 1.1, "lmp": 32.44878683128209, "qlmp": 4.303436942404968e-11, "pl": 100.10000000000004, "ql": 36.4}, "2": {"matpower_bustype": "PV", "area": 1.0, "vm": 0.9261705378855613, "va": 0.1685720101449435, "base_kv": 240.0, "zone": 1.0, "v_min": 0.9, "v_max": 1.1, "lmp": 29.120300842367445, "qlmp": -6.653234576991736e-12, "pl": 100.10000000000004, "ql": 36.4}, "3": {"matpower_bustype": "PV", "area": 1.0, "vm": 0.9, "va": -0.25948617192229523, "base_kv": 240.0, "zone": 1.0, "v_min": 0.9, "v_max": 1.1, "lmp": 36.43724071626083, "qlmp": -5.72172726131357e-12, "pl": 86.45, "ql": 45.5}}, "load": {"load_1": {"in_service": true, "p_load": 100.10000000000004, "q_load": 36.4, "bus": "1"}, "load_2": {"in_service": true, "p_load": 100.10000000000004, "q_load": 36.4, "bus": "2"}, "load_3": {"in_service": true, "p_load": 86.45, "q_load": 45.5, "bus": "3"}}, "generator": {"1": {"bus": "1", "pg": 124.76721288873449, "qg": 38.84468145124389, "vg": 1.0, "mbase": 100.0, "in_service": true, "p_min": 0.0, "p_max": 2000.0, "q_min": -1000.0, "q_max": 1000.0, "generator_type": "thermal", "p_cost": {"data_type": "cost_curve", "cost_curve_type": "polynomial", "values": {"0": 0.0, "1": 5.0, "2": 0.11}}, "startup_cost": 0.0, "shutdown_cost": 0.0}, "2": {"bus": "2", "pg": 164.23706379695196, "qg": -7.176500711913179, "vg": 1.0, "mbase": 100.0, "in_service": true, "p_min": 0.0, "p_max": 2000.0, "q_min": -1000.0, "q_max": 1000.0, "generator_type": "thermal", "p_cost": {"data_type": "cost_curve", "cost_curve_type": "polynomial", "values": {"0": 0.0, "1": 1.2, "2": 0.08500000000000002}}, "startup_cost": 0.0, "shutdown_cost": 0.0}, "3": {"bus": "3", "pg": 0.0, "qg": -5.575827001710873, "vg": 1.0, "mbase": 100.0, "in_service": true, "p_min": 0.0, "p_max": 0.0, "q_min": -1000.0, "q_max": 1000.0, "generator_type": "thermal", "p_cost": {"data_type": "cost_curve", "cost_curve_type": "polynomial", "values": {"0": 0.0, "1": 0.0, "2": 0.0}}, "startup_cost": 0.0, "shutdown_cost": 0.0}}, "branch": {"1": {"from_bus": "1", "to_bus": "3", "resistance": 0.065, "reactance": 0.62, "charging_susceptance": 0.45, "branch_type": "line", "rating_long_term": 9000.0, "rating_short_term": 9000.0, "rating_emergency": 9000.0, "in_service": true, "angle_diff_min": -30.0, "angle_diff_max": 30.0, "pf": 42.05192175394954, "qf": 1.832713062831079, "pt": -40.59556850289349, "qt": -31.141655763254906, "pfl": 1.4563532510560473, "qfl": -29.308942700423824, "pf_dual": 3244.878683128321, "qf_dual": 4.307759130319993e-09}, "2": {"from_bus": "3", "to_bus": "2", "resistance": 0.025, "reactance": 0.75, "charging_susceptance": 0.7, "branch_type": "line", "rating_long_term": 50.0, "rating_short_term": 50.0, "rating_emergency": 50.0, "in_service": true, "angle_diff_min": -30.0, "angle_diff_max": 30.0, "pf": -45.85443149710652, "qf": -19.93417123845597, "pt": 46.52525096653, "qt": -18.313959626065206, "pfl": 0.6708194694234837, "qfl": -38.24813086452118, "pf_dual": 3393.101889669531, "qf_dual": -108.95228852471217}, "3": {"from_bus": "1", "to_bus": "2", "resistance": 0.042, "reactance": 0.9, "charging_susceptance": 0.3, "branch_type": "line", "rating_long_term": 9000.0, "rating_short_term": 9000.0, "rating_emergency": 9000.0, "in_service": true, "angle_diff_min": -30.0, "angle_diff_max": 30.0, "pf": -17.384708865215078, "qf": 0.6119683884128143, "pt": 17.61181283042193, "qt": -25.26254108584797, "pfl": 0.2271039652068485, "qfl": -24.65057269743516, "pf_dual": 3244.8786831281623, "qf_dual": 4.303676360326402e-09}}}, "system": {"model_name": "pglib_opf_case3_lmbd", "mpc_version": "'2'", "baseMVA": 100.0, "reference_bus": "1", "reference_bus_angle": 0.0, "total_cost": 4826.048971917269, "ploss": 2.3542766856863793, "qloss": -92.20764626238017, "mult": 0.91}, "results": {"time": 0.019952774047851562, "#_cons": 36, "#_vars": 23, "termination": "optimal"}}